XFLR5 v6.09.06

 Calculated polar for: NACA 0008

 1 1 Reynolds number fixed          Mach number fixed         

 xtrf =   1.000 (top)        1.000 (bottom)
 Mach =   0.000     Re =     0.300 e 6     Ncrit =   3.000

  alpha     CL        CD       CDp       Cm    Top Xtr Bot Xtr   Cpmin    Chinge    XCp    
 ------- -------- --------- --------- -------- ------- ------- -------- --------- ---------
   0.000  -0.0000   0.00717   0.00135   0.0000  0.7329  0.7329  -0.2789   0.0000   0.6042
   0.500   0.0495   0.00724   0.00138   0.0019  0.6564  0.8026  -0.3514   0.0000   0.2090
   1.000   0.1004   0.00747   0.00148   0.0035  0.5737  0.8640  -0.4573   0.0000   0.2127
   1.500   0.1559   0.00790   0.00164   0.0039  0.4796  0.9117  -0.6099   0.0000   0.2229
   2.000   0.2159   0.00848   0.00187   0.0029  0.3690  0.9457  -0.8173   0.0000   0.2341
   2.500   0.2786   0.00920   0.00214   0.0010  0.2502  0.9684  -1.0917   0.0000   0.2438
   3.000   0.3414   0.00998   0.00250  -0.0010  0.1477  0.9853  -1.3902   0.0000   0.2503
   3.500   0.4053   0.01072   0.00295  -0.0033  0.0804  0.9978  -1.7863   0.0000   0.2552
   4.000   0.4574   0.01134   0.00350  -0.0028  0.0506  1.0000  -2.1840   0.0000   0.2530
   4.500   0.5065   0.01196   0.00406  -0.0016  0.0346  1.0000  -2.5737   0.0000   0.2498
   5.000   0.5558   0.01263   0.00475  -0.0005  0.0263  1.0000  -2.9780   0.0000   0.2472
   5.500   0.6052   0.01339   0.00558   0.0006  0.0190  1.0000  -3.5085   0.0000   0.2450
   6.000   0.6548   0.01420   0.00652   0.0016  0.0162  1.0000  -4.0793   0.0000   0.2431
   6.500   0.7039   0.01518   0.00762   0.0026  0.0137  1.0000  -4.6696   0.0000   0.2414
   7.000   0.7513   0.01656   0.00915   0.0038  0.0119  1.0000  -5.2505   0.0000   0.2396
   7.500   0.7995   0.01770   0.01053   0.0048  0.0100  1.0000  -5.8849   0.0000   0.2382
   8.000   0.8467   0.01904   0.01208   0.0059  0.0085  1.0000  -6.5464   0.0000   0.2368
   8.500   0.8922   0.02068   0.01394   0.0071  0.0076  1.0000  -7.2082   0.0000   0.2353
   9.000   0.9336   0.02306   0.01668   0.0086  0.0068  1.0000  -7.8088   0.0000   0.2335
   9.500   0.9735   0.02559   0.01964   0.0101  0.0064  1.0000  -8.4129   0.0000   0.2317
  10.000   1.0066   0.02916   0.02377   0.0121  0.0059  1.0000  -8.8925   0.0000   0.2296
  10.500   1.0263   0.03452   0.02987   0.0146  0.0054  1.0000  -9.1566   0.0000   0.2268
  11.000   1.0174   0.04284   0.03904   0.0174  0.0052  1.0000  -9.0520   0.0000   0.2236
  11.500   0.9682   0.05462   0.05146   0.0150  0.0052  1.0000  -8.5826   0.0000   0.2245
  12.000   0.7842   0.11266   0.10971  -0.0235  0.0058  1.0000  -4.8581   0.0000   0.2709
  12.500   0.7507   0.13081   0.12779  -0.0313  0.0056  1.0000  -3.8956   0.0000   0.2826
  13.000   0.7402   0.14380   0.14074  -0.0365  0.0055  1.0000  -3.3948   0.0000   0.2900
  13.500   0.7377   0.15472   0.15164  -0.0407  0.0055  1.0000  -3.0703   0.0000   0.2955
  14.000   0.7399   0.16471   0.16161  -0.0445  0.0055  1.0000  -2.8344   0.0000   0.3003
  14.500   0.7451   0.17409   0.17098  -0.0483  0.0056  1.0000  -2.6575   0.0000   0.3045
  15.000   0.7524   0.18306   0.17995  -0.0520  0.0057  1.0000  -2.5980   0.0000   0.3084
  15.500   0.7610   0.19159   0.18847  -0.0556  0.0058  1.0000  -2.5613   0.0000   0.3119
  16.000   0.7710   0.19990   0.19678  -0.0592  0.0059  1.0000  -2.5404   0.0000   0.3151
  16.500   0.7819   0.20850   0.20538  -0.0631  0.0055  1.0000  -2.4873   0.0000   0.3186
  17.000   0.7946   0.21630   0.21319  -0.0669  0.0043  1.0000  -2.5206   0.0000   0.3215
  17.500   0.8081   0.22358   0.22046  -0.0706  0.0038  1.0000  -2.5952   0.0000   0.3241
  18.000   0.8223   0.23044   0.22735  -0.0742  0.0035  1.0000  -2.7027   0.0000   0.3264
  18.500   0.8368   0.23684   0.23376  -0.0779  0.0032  1.0000  -2.8712   0.0000   0.3284
  19.000   0.8499   0.24552   0.24242  -0.0822  0.0028  1.0000  -2.7194   0.0000   0.3314
  19.500   0.8633   0.25501   0.25191  -0.0866  0.0025  1.0000  -2.4185   0.0000   0.3346
  20.000   0.8780   0.26302   0.25991  -0.0908  0.0024  1.0000  -2.2953   0.0000   0.3371
  20.500   0.8936   0.27038   0.26728  -0.0952  0.0024  1.0000  -2.2136   0.0000   0.3395
  21.000   0.9094   0.27754   0.27444  -0.0995  0.0024  1.0000  -2.1543   0.0000   0.3417
  21.500   0.9251   0.28461   0.28152  -0.1039  0.0025  1.0000  -2.1109   0.0000   0.3438
  22.000   0.9407   0.29166   0.28859  -0.1083  0.0026  1.0000  -2.0826   0.0000   0.3459
  22.500   0.9560   0.29863   0.29558  -0.1127  0.0027  1.0000  -2.0687   0.0000   0.3478
  23.000   0.9710   0.30557   0.30253  -0.1171  0.0028  1.0000  -2.0743   0.0000   0.3496
  23.500   0.9854   0.31234   0.30931  -0.1214  0.0029  1.0000  -2.1140   0.0000   0.3512
  28.500   1.1259   0.38772   0.38489  -0.1685  0.0016  1.0000  -2.1178   0.0000   0.3675
  29.000   1.1384   0.39530   0.39249  -0.1733  0.0013  1.0000  -2.1172   0.0000   0.3689
  29.500   1.1506   0.40290   0.40011  -0.1782  0.0011  1.0000  -2.1149   0.0000   0.3702
  30.000   1.1626   0.41070   0.40793  -0.1831  0.0011  1.0000  -2.0913   0.0000   0.3716
  30.500   1.1745   0.41889   0.41613  -0.1880  0.0012  1.0000  -2.0259   0.0000   0.3729
  31.000   1.1863   0.42733   0.42458  -0.1929  0.0015  1.0000  -1.9358   0.0000   0.3742
  31.500   1.1971   0.43535   0.43263  -0.1979  0.0025  1.0000  -1.8898   0.0000   0.3755
  32.000   1.2075   0.44306   0.44037  -0.2029  0.0026  1.0000  -1.8866   0.0000   0.3768
  32.500   1.2177   0.45080   0.44813  -0.2080  0.0026  1.0000  -1.8806   0.0000   0.3780
  33.000   1.2276   0.45855   0.45591  -0.2130  0.0026  1.0000  -1.8745   0.0000   0.3792
  33.500   1.2371   0.46628   0.46367  -0.2181  0.0026  1.0000  -1.8691   0.0000   0.3804
  34.000   1.2462   0.47400   0.47141  -0.2232  0.0026  1.0000  -1.8646   0.0000   0.3816
  34.500   1.2550   0.48168   0.47912  -0.2283  0.0026  1.0000  -1.8611   0.0000   0.3827
  35.000   1.2633   0.48934   0.48681  -0.2334  0.0026  1.0000  -1.8634   0.0000   0.3839
  35.500   1.2713   0.49697   0.49447  -0.2386  0.0026  1.0000  -1.8670   0.0000   0.3850
  36.000   1.2789   0.50458   0.50211  -0.2437  0.0025  1.0000  -1.8710   0.0000   0.3861
  36.500   1.2861   0.51216   0.50972  -0.2489  0.0025  1.0000  -1.8753   0.0000   0.3872
  37.000   1.2928   0.51971   0.51731  -0.2541  0.0025  1.0000  -1.8800   0.0000   0.3883
  37.500   1.2992   0.52723   0.52486  -0.2593  0.0025  1.0000  -1.9253   0.0000   0.3893
  38.000   1.3052   0.53472   0.53238  -0.2646  0.0024  1.0000  -1.9767   0.0000   0.3904
  38.500   1.3107   0.54219   0.53989  -0.2698  0.0023  1.0000  -2.0250   0.0000   0.3914
  39.000   1.3159   0.54956   0.54729  -0.2751  0.0019  1.0000  -2.0759   0.0000   0.3924
  39.500   1.3202   0.55644   0.55421  -0.2804  0.0013  1.0000  -2.1517   0.0000   0.3934
  40.000   1.3239   0.56318   0.56098  -0.2857  0.0010  1.0000  -2.2291   0.0000   0.3945
  40.500   1.3268   0.56965   0.56748  -0.2910  0.0009  1.0000  -2.3200   0.0000   0.3955
  41.000   1.3285   0.57592   0.57379  -0.2963  0.0008  1.0000  -2.4310   0.0000   0.3965
  41.500   1.3309   0.58341   0.58130  -0.3015  0.0008  1.0000  -2.4597   0.0000   0.3975
  42.000   1.3362   0.59211   0.59003  -0.3070  0.0007  1.0000  -2.3298   0.0000   0.3984
  42.500   1.3400   0.60050   0.59845  -0.3123  0.0007  1.0000  -2.2406   0.0000   0.3992
  43.000   1.3425   0.60829   0.60627  -0.3176  0.0006  1.0000  -2.1980   0.0000   0.4001
  43.500   1.3444   0.61582   0.61382  -0.3229  0.0006  1.0000  -2.1715   0.0000   0.4009
  44.000   1.3458   0.62323   0.62126  -0.3282  0.0006  1.0000  -2.1526   0.0000   0.4018
  44.500   1.3467   0.63050   0.62857  -0.3336  0.0006  1.0000  -2.1381   0.0000   0.4026
  45.000   1.3471   0.63767   0.63577  -0.3389  0.0006  1.0000  -2.1266   0.0000   0.4035
  45.500   1.3471   0.64474   0.64287  -0.3442  0.0006  1.0000  -2.1174   0.0000   0.4043
  46.000   1.3466   0.65172   0.64987  -0.3496  0.0006  1.0000  -2.1099   0.0000   0.4051
  46.500   1.3457   0.65859   0.65678  -0.3549  0.0006  1.0000  -2.1038   0.0000   0.4059
  47.000   1.3443   0.66537   0.66359  -0.3602  0.0006  1.0000  -2.0988   0.0000   0.4067
  47.500   1.3425   0.67205   0.67031  -0.3656  0.0006  1.0000  -2.0948   0.0000   0.4075
  48.000   1.3403   0.67863   0.67692  -0.3709  0.0006  1.0000  -2.0965   0.0000   0.4083
  48.500   1.3376   0.68512   0.68345  -0.3762  0.0006  1.0000  -2.1005   0.0000   0.4090
  49.000   1.3345   0.69151   0.68988  -0.3816  0.0006  1.0000  -2.1046   0.0000   0.4098
  49.500   1.3310   0.69781   0.69621  -0.3869  0.0006  1.0000  -2.1357   0.0000   0.4105
  50.000   1.3271   0.70402   0.70244  -0.3922  0.0006  1.0000  -2.1759   0.0000   0.4112
  50.500   1.3228   0.71014   0.70860  -0.3975  0.0006  1.0000  -2.2140   0.0000   0.4119
  51.000   1.3181   0.71623   0.71472  -0.4028  0.0006  1.0000  -2.2478   0.0000   0.4126
  51.500   1.3131   0.72224   0.72077  -0.4080  0.0006  1.0000  -2.2786   0.0000   0.4133
  52.000   1.3077   0.72814   0.72671  -0.4133  0.0005  1.0000  -2.3064   0.0000   0.4139
  52.500   1.3019   0.73400   0.73259  -0.4185  0.0005  1.0000  -2.3277   0.0000   0.4145
  53.000   1.2958   0.73985   0.73847  -0.4238  0.0005  1.0000  -2.3397   0.0000   0.4151
  53.500   1.2894   0.74571   0.74436  -0.4290  0.0004  1.0000  -2.3396   0.0000   0.4157
  54.000   1.2827   0.75153   0.75022  -0.4342  0.0003  1.0000  -2.3309   0.0000   0.4162
  54.500   1.2754   0.75695   0.75567  -0.4394  0.0001  1.0000  -2.3341   0.0000   0.4167
  55.000   1.2672   0.76173   0.76048  -0.4447  0.0000  1.0000  -2.3631   0.0000   0.4173
  55.500   1.2583   0.76600   0.76478  -0.4500  0.0000  1.0000  -2.4108   0.0000   0.4179
  56.000   1.2487   0.76983   0.76865  -0.4553  0.0000  1.0000  -2.4740   0.0000   0.4185
  56.500   1.2398   0.77495   0.77378  -0.4605  0.0000  1.0000  -2.4646   0.0000   0.4190
  57.000   1.2313   0.78066   0.77952  -0.4656  0.0000  1.0000  -2.4210   0.0000   0.4194
  57.500   1.2222   0.78600   0.78488  -0.4707  0.0000  1.0000  -2.3917   0.0000   0.4197
  58.000   1.2126   0.79105   0.78997  -0.4758  0.0000  1.0000  -2.3697   0.0000   0.4201
  58.500   1.2025   0.79593   0.79487  -0.4809  0.0000  1.0000  -2.3523   0.0000   0.4204
  59.000   1.1921   0.80063   0.79960  -0.4859  0.0000  1.0000  -2.3380   0.0000   0.4208
  59.500   1.1813   0.80516   0.80415  -0.4910  0.0000  1.0000  -2.3259   0.0000   0.4211
  60.000   1.1701   0.80953   0.80855  -0.4960  0.0000  1.0000  -2.3153   0.0000   0.4213
  60.500   1.1585   0.81375   0.81280  -0.5010  0.0000  1.0000  -2.3145   0.0000   0.4216
  61.000   1.1466   0.81783   0.81691  -0.5060  0.0000  1.0000  -2.3416   0.0000   0.4218
  61.500   1.1344   0.82178   0.82088  -0.5110  0.0000  1.0000  -2.3704   0.0000   0.4220
  62.000   1.1218   0.82563   0.82476  -0.5159  0.0000  1.0000  -2.3971   0.0000   0.4221
  62.500   1.1091   0.82955   0.82870  -0.5208  0.0000  1.0000  -2.4172   0.0000   0.4222
  63.000   1.0960   0.83325   0.83243  -0.5256  0.0000  1.0000  -2.4377   0.0000   0.4223
  63.500   1.0826   0.83681   0.83601  -0.5305  0.0000  1.0000  -2.4572   0.0000   0.4223
  64.000   1.0689   0.84026   0.83948  -0.5353  0.0000  1.0000  -2.4728   0.0000   0.4222
  64.500   1.0550   0.84364   0.84289  -0.5401  0.0000  1.0000  -2.4833   0.0000   0.4222
  65.000   1.0408   0.84699   0.84627  -0.5449  0.0000  1.0000  -2.4865   0.0000   0.4220
  65.500   1.0264   0.85035   0.84965  -0.5496  0.0000  1.0000  -2.4802   0.0000   0.4218
  66.000   1.0119   0.85375   0.85307  -0.5544  0.0000  1.0000  -2.4642   0.0000   0.4216
  66.500   0.9971   0.85708   0.85642  -0.5591  0.0000  1.0000  -2.4421   0.0000   0.4212
  67.000   0.9820   0.86027   0.85963  -0.5638  0.0000  1.0000  -2.4181   0.0000   0.4208
  67.500   0.9667   0.86331   0.86269  -0.5684  0.0001  1.0000  -2.3961   0.0000   0.4204
  68.000   0.9510   0.86616   0.86555  -0.5730  0.0001  1.0000  -2.3770   0.0000   0.4199
  68.500   0.9350   0.86881   0.86823  -0.5776  0.0001  1.0000  -2.3607   0.0000   0.4193
  69.000   0.9188   0.87129   0.87072  -0.5822  0.0001  1.0000  -2.3467   0.0000   0.4187
  69.500   0.9023   0.87360   0.87305  -0.5867  0.0001  1.0000  -2.3346   0.0000   0.4179
  70.000   0.8855   0.87575   0.87522  -0.5912  0.0001  1.0000  -2.3239   0.0000   0.4171
  70.500   0.8685   0.87776   0.87724  -0.5957  0.0001  1.0000  -2.3393   0.0000   0.4162
  71.000   0.8513   0.87961   0.87911  -0.6001  0.0001  1.0000  -2.3619   0.0000   0.4152
  71.500   0.8339   0.88133   0.88084  -0.6045  0.0002  1.0000  -2.3841   0.0000   0.4141
  72.000   0.8162   0.88279   0.88232  -0.6089  0.0002  1.0000  -2.4082   0.0000   0.4129
  72.500   0.7981   0.88371   0.88326  -0.6132  0.0004  1.0000  -2.4407   0.0000   0.4115
  73.000   0.7799   0.88448   0.88404  -0.6175  0.0005  1.0000  -2.4733   0.0000   0.4100
  73.500   0.7615   0.88510   0.88467  -0.6217  0.0006  1.0000  -2.5053   0.0000   0.4084
  74.000   0.7429   0.88538   0.88496  -0.6260  0.0007  1.0000  -2.5415   0.0000   0.4065
  74.500   0.7240   0.88528   0.88487  -0.6302  0.0008  1.0000  -2.5825   0.0000   0.4046
  75.000   0.7054   0.88628   0.88588  -0.6343  0.0008  1.0000  -2.5940   0.0000   0.4024
  75.500   0.6868   0.88759   0.88719  -0.6384  0.0008  1.0000  -2.5928   0.0000   0.4000
  76.000   0.6681   0.88885   0.88847  -0.6424  0.0008  1.0000  -2.5854   0.0000   0.3973
  76.500   0.6492   0.89015   0.88977  -0.6465  0.0009  1.0000  -2.5703   0.0000   0.3944
  77.000   0.6302   0.89143   0.89107  -0.6505  0.0009  1.0000  -2.5476   0.0000   0.3912
  77.500   0.6111   0.89259   0.89224  -0.6544  0.0010  1.0000  -2.5222   0.0000   0.3877
  78.000   0.5919   0.89356   0.89321  -0.6584  0.0011  1.0000  -2.4976   0.0000   0.3839
  78.500   0.5724   0.89435   0.89400  -0.6623  0.0011  1.0000  -2.4746   0.0000   0.3798
  79.000   0.5529   0.89496   0.89461  -0.6661  0.0012  1.0000  -2.4531   0.0000   0.3752
  79.500   0.5332   0.89543   0.89509  -0.6699  0.0012  1.0000  -2.4334   0.0000   0.3702
  80.000   0.5134   0.89574   0.89540  -0.6736  0.0011  1.0000  -2.4328   0.0000   0.3646
  80.500   0.4935   0.89589   0.89556  -0.6773  0.0011  1.0000  -2.4466   0.0000   0.3585
  81.000   0.4735   0.89589   0.89556  -0.6809  0.0011  1.0000  -2.4601   0.0000   0.3518
  81.500   0.4535   0.89575   0.89542  -0.6845  0.0011  1.0000  -2.4732   0.0000   0.3443
  82.000   0.4333   0.89543   0.89510  -0.6879  0.0013  1.0000  -2.4866   0.0000   0.3359
  82.500   0.4131   0.89501   0.89468  -0.6914  0.0013  1.0000  -2.4982   0.0000   0.3266
  83.000   0.3928   0.89444   0.89411  -0.6947  0.0013  1.0000  -2.5088   0.0000   0.3162
  83.500   0.3725   0.89373   0.89339  -0.6980  0.0014  1.0000  -2.5182   0.0000   0.3045
  84.000   0.3522   0.89288   0.89254  -0.7012  0.0015  1.0000  -2.5266   0.0000   0.2913
  84.500   0.3318   0.89177   0.89143  -0.7043  0.0017  1.0000  -2.5357   0.0000   0.2762
  85.000   0.3115   0.88967   0.88932  -0.7072  0.0023  1.0000  -2.5611   0.0000   0.2590
  85.500   0.2914   0.88652   0.88616  -0.7100  0.0028  1.0000  -2.6054   0.0000   0.2390
  86.000   0.2710   0.88494   0.88457  -0.7128  0.0035  1.0000  -2.6137   0.0000   0.2161
  86.500   0.2507   0.88368   0.88331  -0.7156  0.0041  1.0000  -2.6092   0.0000   0.1893
  87.000   0.2304   0.88215   0.88177  -0.7183  0.0045  1.0000  -2.6064   0.0000   0.1575
  87.500   0.2103   0.88056   0.88017  -0.7209  0.0049  1.0000  -2.6020   0.0000   0.1194
  88.000   0.1901   0.87889   0.87849  -0.7235  0.0053  1.0000  -2.5960   0.0000   0.0731
  88.500   0.1700   0.87676   0.87634  -0.7256  0.0056  1.0000  -2.5873   0.0000   0.0155
  89.000   0.1496   0.87253   0.87210  -0.7262  0.0058  1.0000  -2.5716   0.0000  -0.0578
  89.500   0.1287   0.86257   0.86213  -0.7226  0.0060  1.0000  -2.5553   0.0000  -0.1543
  90.000   0.1073   0.84610   0.84564  -0.7141  0.0060  1.0000  -2.5301   0.0000  -0.2874


